busdata_9.m
clear all
%         |  From |  To   |   R     |   X     |     B/2  |  X'mer  |
%         |  Bus  | Bus   |  pu     |  pu     |     pu   | TAP (a) |

linedata= [  1        4	        0	   0.0576       0	      1
             4	      5	     0.017     0.092        0.158	  1
             5        6	     0.039     0.17         0.358	  1
             3        6	        0	   0.0586	    0	      1
             6        7	    0.0119     0.1008       0.209	  1
             7        8	    0.0085     0.072        0.149	  1
             8        2          0	   0.0625	    0	      1
             8        9	     0.032	   0.161        0.306	  1
             9        4	      0.01	   0.085        0.176	  1    ];
                     
                     
busdata= [ %bus| type |Vsp |theta| PGi  | QGi  |  PLi  |   QLi |  Qmin | Qmax |
           1	  1	    1	  0	    0	   0       0	    0	   -3	     3	     
           2	  2	    1	  0     1.63   0       0	    0	   -3	     3	    
           3	  2	    1	  0     0.85   0       0	    0	   -3	     3	     
           4	  0	    1	  0	    0	   0       0	    0	    0	     0	     
           5	  0	    1	  0	    0	   0      90	    30	    0	     0	     
           6	  0	    1	  0	    0	   0       0	    0	    0	     0	     
           7	  0	    1	  0	    0	   0     100        35	    0	     0	     
           8	  0	    1	  0	    0	   0       0	    0	    0	     0	     
           9	  0	    1	  0	    0	   0     125        50	    0	     0	        ];